16
TFSI from Hnyk et al., Dalton Trans., 2007, 265-271
N	0.0	0.0	0.0
S	0.0	-1.697	0.0
O	-1.331	-2.030	-0.368
O	1.112	-2.030	-0.819
C	0.329	-2.183	1.783
F	-0.825	-2.200	2.428
F	1.157	-1.307	2.328
F	0.871	-3.389	1.760
S	-1.371	1.025	0.0
O	-2.224	0.493	-1.004
O	-1.830	1.229	1.329
C	-0.581	2.605	-0.632
F	-0.067	3.255	0.400
F	0.361	2.300	-1.510
F	-1.540	3.316	-1.202
F	0.534	0.268	1.233	 
